<routes>
        <vType id="type1" accel="2.6" decel="4.5" sigma="0.5" length="5" maxSpeed="70"/>
<route id="aub-ain_mreysse ain_mreysse-zeytouna" edges="aub-ain_mreysse ain_mreysse-zeytouna" />
<route id="zeytouna-ain_mreysse ain_mreysse-bliss" edges="zeytouna-ain_mreysse ain_mreysse-bliss" />
<route id="zeytouna-ain_mreysse ain_mreysse-aub" edges="zeytouna-ain_mreysse ain_mreysse-aub" />
<route id="bliss-ain_mreysse ain_mreysse-aub" edges="bliss-ain_mreysse ain_mreysse-aub" />
<route id="bliss-ain_mreysse ain_mreysse-zeytouna" edges="bliss-ain_mreysse ain_mreysse-zeytouna" />
<route id="aub-ain_mreysse ain_mreysse-bliss" edges="aub-ain_mreysse ain_mreysse-bliss" />
 <vehicle depart="0.000000" departLane="0" id="zeytouna-ain_mreysse_0_0" route="zeytouna-ain_mreysse ain_mreysse-aub" type="type1"/>
<vehicle depart="0.000000" departLane="1" id="zeytouna-ain_mreysse_1_0" route="zeytouna-ain_mreysse ain_mreysse-aub" type="type1"/>
<vehicle depart="0.000000" departLane="2" id="zeytouna-ain_mreysse_2_0" route="zeytouna-ain_mreysse ain_mreysse-aub" type="type1"/>
<vehicle depart="0.000000" departLane="3" id="zeytouna-ain_mreysse_3_0" route="zeytouna-ain_mreysse ain_mreysse-bliss" type="type1"/>
<vehicle depart="0.000000" departLane="0" id="bliss-ain_mreysse_0_0" route="bliss-ain_mreysse ain_mreysse-zeytouna" type="type1"/>
<vehicle depart="0.000000" departLane="1" id="bliss-ain_mreysse_1_0" route="bliss-ain_mreysse ain_mreysse-aub" type="type1"/>
<vehicle depart="0.000000" departLane="0" id="aub-ain_mreysse_0_0" route="aub-ain_mreysse ain_mreysse-zeytouna" type="type1"/>
<vehicle depart="0.000000" departLane="1" id="aub-ain_mreysse_1_0" route="aub-ain_mreysse ain_mreysse-zeytouna" type="type1"/>
<vehicle depart="1.966139" departLane="1" id="zeytouna-ain_mreysse_1_1" route="zeytouna-ain_mreysse ain_mreysse-aub" type="type1"/>
<vehicle depart="1.966139" departLane="1" id="aub-ain_mreysse_1_1" route="aub-ain_mreysse ain_mreysse-zeytouna" type="type1"/>
<vehicle depart="3.932277" departLane="1" id="zeytouna-ain_mreysse_1_2" route="zeytouna-ain_mreysse ain_mreysse-aub" type="type1"/>
<vehicle depart="3.932277" departLane="1" id="aub-ain_mreysse_1_2" route="aub-ain_mreysse ain_mreysse-zeytouna" type="type1"/>
<vehicle depart="5.741627" departLane="3" id="zeytouna-ain_mreysse_3_1" route="zeytouna-ain_mreysse ain_mreysse-bliss" type="type1"/>
<vehicle depart="5.898416" departLane="1" id="zeytouna-ain_mreysse_1_3" route="zeytouna-ain_mreysse ain_mreysse-aub" type="type1"/>
<vehicle depart="5.898416" departLane="1" id="aub-ain_mreysse_1_3" route="aub-ain_mreysse ain_mreysse-zeytouna" type="type1"/>
<vehicle depart="6.463196" departLane="0" id="zeytouna-ain_mreysse_0_1" route="zeytouna-ain_mreysse ain_mreysse-aub" type="type1"/>
<vehicle depart="7.864555" departLane="1" id="zeytouna-ain_mreysse_1_4" route="zeytouna-ain_mreysse ain_mreysse-aub" type="type1"/>
<vehicle depart="7.864555" departLane="1" id="aub-ain_mreysse_1_4" route="aub-ain_mreysse ain_mreysse-zeytouna" type="type1"/>
<vehicle depart="7.982262" departLane="2" id="zeytouna-ain_mreysse_2_1" route="zeytouna-ain_mreysse ain_mreysse-bliss" type="type1"/>
<vehicle depart="7.982262" departLane="0" id="aub-ain_mreysse_0_1" route="aub-ain_mreysse ain_mreysse-bliss" type="type1"/>
<vehicle depart="9.830694" departLane="1" id="zeytouna-ain_mreysse_1_5" route="zeytouna-ain_mreysse ain_mreysse-aub" type="type1"/>
<vehicle depart="9.830694" departLane="1" id="aub-ain_mreysse_1_5" route="aub-ain_mreysse ain_mreysse-zeytouna" type="type1"/>
<vehicle depart="11.483254" departLane="3" id="zeytouna-ain_mreysse_3_2" route="zeytouna-ain_mreysse ain_mreysse-bliss" type="type1"/>
<vehicle depart="11.796832" departLane="1" id="zeytouna-ain_mreysse_1_6" route="zeytouna-ain_mreysse ain_mreysse-aub" type="type1"/>
<vehicle depart="11.796832" departLane="1" id="aub-ain_mreysse_1_6" route="aub-ain_mreysse ain_mreysse-zeytouna" type="type1"/>
<vehicle depart="12.811388" departLane="1" id="bliss-ain_mreysse_1_1" route="bliss-ain_mreysse ain_mreysse-aub" type="type1"/>
<vehicle depart="12.926391" departLane="0" id="zeytouna-ain_mreysse_0_2" route="zeytouna-ain_mreysse ain_mreysse-aub" type="type1"/>
<vehicle depart="13.762971" departLane="1" id="zeytouna-ain_mreysse_1_7" route="zeytouna-ain_mreysse ain_mreysse-aub" type="type1"/>
<vehicle depart="13.762971" departLane="1" id="aub-ain_mreysse_1_7" route="aub-ain_mreysse ain_mreysse-zeytouna" type="type1"/>
<vehicle depart="15.729110" departLane="1" id="zeytouna-ain_mreysse_1_8" route="zeytouna-ain_mreysse ain_mreysse-aub" type="type1"/>
<vehicle depart="15.729110" departLane="1" id="aub-ain_mreysse_1_8" route="aub-ain_mreysse ain_mreysse-zeytouna" type="type1"/>
<vehicle depart="15.964523" departLane="2" id="zeytouna-ain_mreysse_2_2" route="zeytouna-ain_mreysse ain_mreysse-bliss" type="type1"/>
<vehicle depart="15.964523" departLane="0" id="aub-ain_mreysse_0_2" route="aub-ain_mreysse ain_mreysse-bliss" type="type1"/>
<vehicle depart="17.224880" departLane="3" id="zeytouna-ain_mreysse_3_3" route="zeytouna-ain_mreysse ain_mreysse-bliss" type="type1"/>
<vehicle depart="17.695248" departLane="1" id="zeytouna-ain_mreysse_1_9" route="zeytouna-ain_mreysse ain_mreysse-aub" type="type1"/>
<vehicle depart="17.695248" departLane="1" id="aub-ain_mreysse_1_9" route="aub-ain_mreysse ain_mreysse-zeytouna" type="type1"/>
<vehicle depart="19.389587" departLane="0" id="zeytouna-ain_mreysse_0_3" route="zeytouna-ain_mreysse ain_mreysse-aub" type="type1"/>
<vehicle depart="19.661387" departLane="1" id="zeytouna-ain_mreysse_1_10" route="zeytouna-ain_mreysse ain_mreysse-aub" type="type1"/>
<vehicle depart="19.661387" departLane="1" id="aub-ain_mreysse_1_10" route="aub-ain_mreysse ain_mreysse-zeytouna" type="type1"/>
<vehicle depart="21.627526" departLane="1" id="zeytouna-ain_mreysse_1_11" route="zeytouna-ain_mreysse ain_mreysse-aub" type="type1"/>
<vehicle depart="21.627526" departLane="1" id="aub-ain_mreysse_1_11" route="aub-ain_mreysse ain_mreysse-zeytouna" type="type1"/>
<vehicle depart="22.966507" departLane="3" id="zeytouna-ain_mreysse_3_4" route="zeytouna-ain_mreysse ain_mreysse-bliss" type="type1"/>
<vehicle depart="23.593665" departLane="1" id="zeytouna-ain_mreysse_1_12" route="zeytouna-ain_mreysse ain_mreysse-aub" type="type1"/>
<vehicle depart="23.593665" departLane="1" id="aub-ain_mreysse_1_12" route="aub-ain_mreysse ain_mreysse-zeytouna" type="type1"/>
<vehicle depart="23.946785" departLane="2" id="zeytouna-ain_mreysse_2_3" route="zeytouna-ain_mreysse ain_mreysse-bliss" type="type1"/>
<vehicle depart="23.946785" departLane="0" id="aub-ain_mreysse_0_3" route="aub-ain_mreysse ain_mreysse-zeytouna" type="type1"/>
<vehicle depart="25.559803" departLane="1" id="zeytouna-ain_mreysse_1_13" route="zeytouna-ain_mreysse ain_mreysse-aub" type="type1"/>
<vehicle depart="25.559803" departLane="1" id="aub-ain_mreysse_1_13" route="aub-ain_mreysse ain_mreysse-zeytouna" type="type1"/>
<vehicle depart="25.622776" departLane="1" id="bliss-ain_mreysse_1_2" route="bliss-ain_mreysse ain_mreysse-aub" type="type1"/>
<vehicle depart="25.852783" departLane="0" id="zeytouna-ain_mreysse_0_4" route="zeytouna-ain_mreysse ain_mreysse-aub" type="type1"/>
<vehicle depart="27.525942" departLane="1" id="zeytouna-ain_mreysse_1_14" route="zeytouna-ain_mreysse ain_mreysse-aub" type="type1"/>
<vehicle depart="27.525942" departLane="1" id="aub-ain_mreysse_1_14" route="aub-ain_mreysse ain_mreysse-zeytouna" type="type1"/>
<vehicle depart="28.708134" departLane="3" id="zeytouna-ain_mreysse_3_5" route="zeytouna-ain_mreysse ain_mreysse-bliss" type="type1"/>
<vehicle depart="29.492081" departLane="1" id="zeytouna-ain_mreysse_1_15" route="zeytouna-ain_mreysse ain_mreysse-aub" type="type1"/>
<vehicle depart="29.492081" departLane="1" id="aub-ain_mreysse_1_15" route="aub-ain_mreysse ain_mreysse-zeytouna" type="type1"/>
<vehicle depart="31.458220" departLane="1" id="zeytouna-ain_mreysse_1_16" route="zeytouna-ain_mreysse ain_mreysse-aub" type="type1"/>
<vehicle depart="31.458220" departLane="1" id="aub-ain_mreysse_1_16" route="aub-ain_mreysse ain_mreysse-zeytouna" type="type1"/>
<vehicle depart="31.929047" departLane="2" id="zeytouna-ain_mreysse_2_4" route="zeytouna-ain_mreysse ain_mreysse-bliss" type="type1"/>
<vehicle depart="31.929047" departLane="0" id="aub-ain_mreysse_0_4" route="aub-ain_mreysse ain_mreysse-bliss" type="type1"/>
<vehicle depart="32.315978" departLane="0" id="zeytouna-ain_mreysse_0_5" route="zeytouna-ain_mreysse ain_mreysse-aub" type="type1"/>
<vehicle depart="33.424358" departLane="1" id="zeytouna-ain_mreysse_1_17" route="zeytouna-ain_mreysse ain_mreysse-aub" type="type1"/>
<vehicle depart="33.424358" departLane="1" id="aub-ain_mreysse_1_17" route="aub-ain_mreysse ain_mreysse-zeytouna" type="type1"/>
<vehicle depart="34.449761" departLane="3" id="zeytouna-ain_mreysse_3_6" route="zeytouna-ain_mreysse ain_mreysse-bliss" type="type1"/>
<vehicle depart="35.390497" departLane="1" id="zeytouna-ain_mreysse_1_18" route="zeytouna-ain_mreysse ain_mreysse-aub" type="type1"/>
<vehicle depart="35.390497" departLane="1" id="aub-ain_mreysse_1_18" route="aub-ain_mreysse ain_mreysse-zeytouna" type="type1"/>
<vehicle depart="37.356636" departLane="1" id="zeytouna-ain_mreysse_1_19" route="zeytouna-ain_mreysse ain_mreysse-aub" type="type1"/>
<vehicle depart="37.356636" departLane="1" id="aub-ain_mreysse_1_19" route="aub-ain_mreysse ain_mreysse-zeytouna" type="type1"/>
<vehicle depart="38.434164" departLane="1" id="bliss-ain_mreysse_1_3" route="bliss-ain_mreysse ain_mreysse-aub" type="type1"/>
<vehicle depart="38.779174" departLane="0" id="zeytouna-ain_mreysse_0_6" route="zeytouna-ain_mreysse ain_mreysse-aub" type="type1"/>
<vehicle depart="39.322774" departLane="1" id="zeytouna-ain_mreysse_1_20" route="zeytouna-ain_mreysse ain_mreysse-aub" type="type1"/>
<vehicle depart="39.322774" departLane="1" id="aub-ain_mreysse_1_20" route="aub-ain_mreysse ain_mreysse-zeytouna" type="type1"/>
<vehicle depart="39.911308" departLane="2" id="zeytouna-ain_mreysse_2_5" route="zeytouna-ain_mreysse ain_mreysse-aub" type="type1"/>
<vehicle depart="39.911308" departLane="0" id="aub-ain_mreysse_0_5" route="aub-ain_mreysse ain_mreysse-bliss" type="type1"/>
<vehicle depart="40.191388" departLane="3" id="zeytouna-ain_mreysse_3_7" route="zeytouna-ain_mreysse ain_mreysse-bliss" type="type1"/>
<vehicle depart="41.288913" departLane="1" id="zeytouna-ain_mreysse_1_21" route="zeytouna-ain_mreysse ain_mreysse-aub" type="type1"/>
<vehicle depart="41.288913" departLane="1" id="aub-ain_mreysse_1_21" route="aub-ain_mreysse ain_mreysse-zeytouna" type="type1"/>
<vehicle depart="43.255052" departLane="1" id="zeytouna-ain_mreysse_1_22" route="zeytouna-ain_mreysse ain_mreysse-aub" type="type1"/>
<vehicle depart="43.255052" departLane="1" id="aub-ain_mreysse_1_22" route="aub-ain_mreysse ain_mreysse-zeytouna" type="type1"/>
<vehicle depart="45.000000" departLane="0" id="bliss-ain_mreysse_0_1" route="bliss-ain_mreysse ain_mreysse-aub" type="type1"/>
<vehicle depart="45.221191" departLane="1" id="zeytouna-ain_mreysse_1_23" route="zeytouna-ain_mreysse ain_mreysse-aub" type="type1"/>
<vehicle depart="45.221191" departLane="1" id="aub-ain_mreysse_1_23" route="aub-ain_mreysse ain_mreysse-zeytouna" type="type1"/>
<vehicle depart="45.242370" departLane="0" id="zeytouna-ain_mreysse_0_7" route="zeytouna-ain_mreysse ain_mreysse-aub" type="type1"/>
<vehicle depart="45.933014" departLane="3" id="zeytouna-ain_mreysse_3_8" route="zeytouna-ain_mreysse ain_mreysse-bliss" type="type1"/>
<vehicle depart="47.187329" departLane="1" id="zeytouna-ain_mreysse_1_24" route="zeytouna-ain_mreysse ain_mreysse-aub" type="type1"/>
<vehicle depart="47.187329" departLane="1" id="aub-ain_mreysse_1_24" route="aub-ain_mreysse ain_mreysse-zeytouna" type="type1"/>
<vehicle depart="47.893570" departLane="2" id="zeytouna-ain_mreysse_2_6" route="zeytouna-ain_mreysse ain_mreysse-bliss" type="type1"/>
<vehicle depart="47.893570" departLane="0" id="aub-ain_mreysse_0_6" route="aub-ain_mreysse ain_mreysse-bliss" type="type1"/>
<vehicle depart="49.153468" departLane="1" id="zeytouna-ain_mreysse_1_25" route="zeytouna-ain_mreysse ain_mreysse-aub" type="type1"/>
<vehicle depart="49.153468" departLane="1" id="aub-ain_mreysse_1_25" route="aub-ain_mreysse ain_mreysse-zeytouna" type="type1"/>
<vehicle depart="51.119607" departLane="1" id="zeytouna-ain_mreysse_1_26" route="zeytouna-ain_mreysse ain_mreysse-aub" type="type1"/>
<vehicle depart="51.119607" departLane="1" id="aub-ain_mreysse_1_26" route="aub-ain_mreysse ain_mreysse-zeytouna" type="type1"/>
<vehicle depart="51.245552" departLane="1" id="bliss-ain_mreysse_1_4" route="bliss-ain_mreysse ain_mreysse-aub" type="type1"/>
<vehicle depart="51.674641" departLane="3" id="zeytouna-ain_mreysse_3_9" route="zeytouna-ain_mreysse ain_mreysse-bliss" type="type1"/>
<vehicle depart="51.705566" departLane="0" id="zeytouna-ain_mreysse_0_8" route="zeytouna-ain_mreysse ain_mreysse-aub" type="type1"/>
<vehicle depart="53.085745" departLane="1" id="zeytouna-ain_mreysse_1_27" route="zeytouna-ain_mreysse ain_mreysse-aub" type="type1"/>
<vehicle depart="53.085745" departLane="1" id="aub-ain_mreysse_1_27" route="aub-ain_mreysse ain_mreysse-zeytouna" type="type1"/>
<vehicle depart="55.051884" departLane="1" id="zeytouna-ain_mreysse_1_28" route="zeytouna-ain_mreysse ain_mreysse-aub" type="type1"/>
<vehicle depart="55.051884" departLane="1" id="aub-ain_mreysse_1_28" route="aub-ain_mreysse ain_mreysse-zeytouna" type="type1"/>
<vehicle depart="55.875831" departLane="2" id="zeytouna-ain_mreysse_2_7" route="zeytouna-ain_mreysse ain_mreysse-bliss" type="type1"/>
<vehicle depart="55.875831" departLane="0" id="aub-ain_mreysse_0_7" route="aub-ain_mreysse ain_mreysse-zeytouna" type="type1"/>
<vehicle depart="57.018023" departLane="1" id="zeytouna-ain_mreysse_1_29" route="zeytouna-ain_mreysse ain_mreysse-aub" type="type1"/>
<vehicle depart="57.018023" departLane="1" id="aub-ain_mreysse_1_29" route="aub-ain_mreysse ain_mreysse-zeytouna" type="type1"/>
<vehicle depart="57.416268" departLane="3" id="zeytouna-ain_mreysse_3_10" route="zeytouna-ain_mreysse ain_mreysse-bliss" type="type1"/>
<vehicle depart="58.168761" departLane="0" id="zeytouna-ain_mreysse_0_9" route="zeytouna-ain_mreysse ain_mreysse-aub" type="type1"/>
<vehicle depart="58.984162" departLane="1" id="zeytouna-ain_mreysse_1_30" route="zeytouna-ain_mreysse ain_mreysse-aub" type="type1"/>
<vehicle depart="58.984162" departLane="1" id="aub-ain_mreysse_1_30" route="aub-ain_mreysse ain_mreysse-zeytouna" type="type1"/>
<vehicle depart="60.950300" departLane="1" id="zeytouna-ain_mreysse_1_31" route="zeytouna-ain_mreysse ain_mreysse-aub" type="type1"/>
<vehicle depart="60.950300" departLane="1" id="aub-ain_mreysse_1_31" route="aub-ain_mreysse ain_mreysse-zeytouna" type="type1"/>
<vehicle depart="62.916439" departLane="1" id="zeytouna-ain_mreysse_1_32" route="zeytouna-ain_mreysse ain_mreysse-aub" type="type1"/>
<vehicle depart="62.916439" departLane="1" id="aub-ain_mreysse_1_32" route="aub-ain_mreysse ain_mreysse-zeytouna" type="type1"/>
<vehicle depart="63.157895" departLane="3" id="zeytouna-ain_mreysse_3_11" route="zeytouna-ain_mreysse ain_mreysse-bliss" type="type1"/>
<vehicle depart="63.858093" departLane="2" id="zeytouna-ain_mreysse_2_8" route="zeytouna-ain_mreysse ain_mreysse-aub" type="type1"/>
<vehicle depart="63.858093" departLane="0" id="aub-ain_mreysse_0_8" route="aub-ain_mreysse ain_mreysse-zeytouna" type="type1"/>
<vehicle depart="64.056940" departLane="1" id="bliss-ain_mreysse_1_5" route="bliss-ain_mreysse ain_mreysse-aub" type="type1"/>
<vehicle depart="64.631957" departLane="0" id="zeytouna-ain_mreysse_0_10" route="zeytouna-ain_mreysse ain_mreysse-aub" type="type1"/>
<vehicle depart="64.882578" departLane="1" id="zeytouna-ain_mreysse_1_33" route="zeytouna-ain_mreysse ain_mreysse-aub" type="type1"/>
<vehicle depart="64.882578" departLane="1" id="aub-ain_mreysse_1_33" route="aub-ain_mreysse ain_mreysse-zeytouna" type="type1"/>
<vehicle depart="66.848717" departLane="1" id="zeytouna-ain_mreysse_1_34" route="zeytouna-ain_mreysse ain_mreysse-aub" type="type1"/>
<vehicle depart="66.848717" departLane="1" id="aub-ain_mreysse_1_34" route="aub-ain_mreysse ain_mreysse-zeytouna" type="type1"/>
<vehicle depart="68.814855" departLane="1" id="zeytouna-ain_mreysse_1_35" route="zeytouna-ain_mreysse ain_mreysse-aub" type="type1"/>
<vehicle depart="68.814855" departLane="1" id="aub-ain_mreysse_1_35" route="aub-ain_mreysse ain_mreysse-zeytouna" type="type1"/>
<vehicle depart="68.899522" departLane="3" id="zeytouna-ain_mreysse_3_12" route="zeytouna-ain_mreysse ain_mreysse-bliss" type="type1"/>
<vehicle depart="70.780994" departLane="1" id="zeytouna-ain_mreysse_1_36" route="zeytouna-ain_mreysse ain_mreysse-aub" type="type1"/>
<vehicle depart="70.780994" departLane="1" id="aub-ain_mreysse_1_36" route="aub-ain_mreysse ain_mreysse-zeytouna" type="type1"/>
<vehicle depart="71.095153" departLane="0" id="zeytouna-ain_mreysse_0_11" route="zeytouna-ain_mreysse ain_mreysse-aub" type="type1"/>
<vehicle depart="71.840355" departLane="2" id="zeytouna-ain_mreysse_2_9" route="zeytouna-ain_mreysse ain_mreysse-aub" type="type1"/>
<vehicle depart="71.840355" departLane="0" id="aub-ain_mreysse_0_9" route="aub-ain_mreysse ain_mreysse-zeytouna" type="type1"/>
<vehicle depart="72.747133" departLane="1" id="zeytouna-ain_mreysse_1_37" route="zeytouna-ain_mreysse ain_mreysse-aub" type="type1"/>
<vehicle depart="72.747133" departLane="1" id="aub-ain_mreysse_1_37" route="aub-ain_mreysse ain_mreysse-zeytouna" type="type1"/>
<vehicle depart="74.641148" departLane="3" id="zeytouna-ain_mreysse_3_13" route="zeytouna-ain_mreysse ain_mreysse-bliss" type="type1"/>
<vehicle depart="74.713271" departLane="1" id="zeytouna-ain_mreysse_1_38" route="zeytouna-ain_mreysse ain_mreysse-aub" type="type1"/>
<vehicle depart="74.713271" departLane="1" id="aub-ain_mreysse_1_38" route="aub-ain_mreysse ain_mreysse-zeytouna" type="type1"/>
<vehicle depart="76.679410" departLane="1" id="zeytouna-ain_mreysse_1_39" route="zeytouna-ain_mreysse ain_mreysse-aub" type="type1"/>
<vehicle depart="76.679410" departLane="1" id="aub-ain_mreysse_1_39" route="aub-ain_mreysse ain_mreysse-zeytouna" type="type1"/>
<vehicle depart="76.868327" departLane="1" id="bliss-ain_mreysse_1_6" route="bliss-ain_mreysse ain_mreysse-aub" type="type1"/>
<vehicle depart="77.558348" departLane="0" id="zeytouna-ain_mreysse_0_12" route="zeytouna-ain_mreysse ain_mreysse-aub" type="type1"/>
<vehicle depart="78.645549" departLane="1" id="zeytouna-ain_mreysse_1_40" route="zeytouna-ain_mreysse ain_mreysse-aub" type="type1"/>
<vehicle depart="78.645549" departLane="1" id="aub-ain_mreysse_1_40" route="aub-ain_mreysse ain_mreysse-zeytouna" type="type1"/>
<vehicle depart="79.822616" departLane="2" id="zeytouna-ain_mreysse_2_10" route="zeytouna-ain_mreysse ain_mreysse-aub" type="type1"/>
<vehicle depart="79.822616" departLane="0" id="aub-ain_mreysse_0_10" route="aub-ain_mreysse ain_mreysse-bliss" type="type1"/>
<vehicle depart="80.382775" departLane="3" id="zeytouna-ain_mreysse_3_14" route="zeytouna-ain_mreysse ain_mreysse-bliss" type="type1"/>
<vehicle depart="80.611688" departLane="1" id="zeytouna-ain_mreysse_1_41" route="zeytouna-ain_mreysse ain_mreysse-aub" type="type1"/>
<vehicle depart="80.611688" departLane="1" id="aub-ain_mreysse_1_41" route="aub-ain_mreysse ain_mreysse-zeytouna" type="type1"/>
<vehicle depart="82.577826" departLane="1" id="zeytouna-ain_mreysse_1_42" route="zeytouna-ain_mreysse ain_mreysse-aub" type="type1"/>
<vehicle depart="82.577826" departLane="1" id="aub-ain_mreysse_1_42" route="aub-ain_mreysse ain_mreysse-zeytouna" type="type1"/>
<vehicle depart="84.021544" departLane="0" id="zeytouna-ain_mreysse_0_13" route="zeytouna-ain_mreysse ain_mreysse-aub" type="type1"/>
<vehicle depart="84.543965" departLane="1" id="zeytouna-ain_mreysse_1_43" route="zeytouna-ain_mreysse ain_mreysse-aub" type="type1"/>
<vehicle depart="84.543965" departLane="1" id="aub-ain_mreysse_1_43" route="aub-ain_mreysse ain_mreysse-zeytouna" type="type1"/>
<vehicle depart="86.124402" departLane="3" id="zeytouna-ain_mreysse_3_15" route="zeytouna-ain_mreysse ain_mreysse-bliss" type="type1"/>
<vehicle depart="86.510104" departLane="1" id="zeytouna-ain_mreysse_1_44" route="zeytouna-ain_mreysse ain_mreysse-aub" type="type1"/>
<vehicle depart="86.510104" departLane="1" id="aub-ain_mreysse_1_44" route="aub-ain_mreysse ain_mreysse-zeytouna" type="type1"/>
<vehicle depart="87.804878" departLane="2" id="zeytouna-ain_mreysse_2_11" route="zeytouna-ain_mreysse ain_mreysse-bliss" type="type1"/>
<vehicle depart="87.804878" departLane="0" id="aub-ain_mreysse_0_11" route="aub-ain_mreysse ain_mreysse-zeytouna" type="type1"/>
<vehicle depart="88.476242" departLane="1" id="zeytouna-ain_mreysse_1_45" route="zeytouna-ain_mreysse ain_mreysse-aub" type="type1"/>
<vehicle depart="88.476242" departLane="1" id="aub-ain_mreysse_1_45" route="aub-ain_mreysse ain_mreysse-zeytouna" type="type1"/>
<vehicle depart="89.679715" departLane="1" id="bliss-ain_mreysse_1_7" route="bliss-ain_mreysse ain_mreysse-aub" type="type1"/>
<vehicle depart="90.000000" departLane="0" id="bliss-ain_mreysse_0_2" route="bliss-ain_mreysse ain_mreysse-aub" type="type1"/>
<vehicle depart="90.442381" departLane="1" id="zeytouna-ain_mreysse_1_46" route="zeytouna-ain_mreysse ain_mreysse-aub" type="type1"/>
<vehicle depart="90.442381" departLane="1" id="aub-ain_mreysse_1_46" route="aub-ain_mreysse ain_mreysse-zeytouna" type="type1"/>
<vehicle depart="90.484740" departLane="0" id="zeytouna-ain_mreysse_0_14" route="zeytouna-ain_mreysse ain_mreysse-aub" type="type1"/>
<vehicle depart="91.866029" departLane="3" id="zeytouna-ain_mreysse_3_16" route="zeytouna-ain_mreysse ain_mreysse-bliss" type="type1"/>
<vehicle depart="92.408520" departLane="1" id="zeytouna-ain_mreysse_1_47" route="zeytouna-ain_mreysse ain_mreysse-aub" type="type1"/>
<vehicle depart="92.408520" departLane="1" id="aub-ain_mreysse_1_47" route="aub-ain_mreysse ain_mreysse-zeytouna" type="type1"/>
<vehicle depart="94.374659" departLane="1" id="zeytouna-ain_mreysse_1_48" route="zeytouna-ain_mreysse ain_mreysse-aub" type="type1"/>
<vehicle depart="94.374659" departLane="1" id="aub-ain_mreysse_1_48" route="aub-ain_mreysse ain_mreysse-zeytouna" type="type1"/>
<vehicle depart="95.787140" departLane="2" id="zeytouna-ain_mreysse_2_12" route="zeytouna-ain_mreysse ain_mreysse-aub" type="type1"/>
<vehicle depart="95.787140" departLane="0" id="aub-ain_mreysse_0_12" route="aub-ain_mreysse ain_mreysse-bliss" type="type1"/>
<vehicle depart="96.340797" departLane="1" id="zeytouna-ain_mreysse_1_49" route="zeytouna-ain_mreysse ain_mreysse-aub" type="type1"/>
<vehicle depart="96.340797" departLane="1" id="aub-ain_mreysse_1_49" route="aub-ain_mreysse ain_mreysse-zeytouna" type="type1"/>
<vehicle depart="96.947935" departLane="0" id="zeytouna-ain_mreysse_0_15" route="zeytouna-ain_mreysse ain_mreysse-aub" type="type1"/>
<vehicle depart="97.607656" departLane="3" id="zeytouna-ain_mreysse_3_17" route="zeytouna-ain_mreysse ain_mreysse-bliss" type="type1"/>
<vehicle depart="98.306936" departLane="1" id="zeytouna-ain_mreysse_1_50" route="zeytouna-ain_mreysse ain_mreysse-aub" type="type1"/>
<vehicle depart="98.306936" departLane="1" id="aub-ain_mreysse_1_50" route="aub-ain_mreysse ain_mreysse-zeytouna" type="type1"/>
<vehicle depart="100.273075" departLane="1" id="zeytouna-ain_mreysse_1_51" route="zeytouna-ain_mreysse ain_mreysse-aub" type="type1"/>
<vehicle depart="100.273075" departLane="1" id="aub-ain_mreysse_1_51" route="aub-ain_mreysse ain_mreysse-zeytouna" type="type1"/>
<vehicle depart="102.239214" departLane="1" id="zeytouna-ain_mreysse_1_52" route="zeytouna-ain_mreysse ain_mreysse-aub" type="type1"/>
<vehicle depart="102.239214" departLane="1" id="aub-ain_mreysse_1_52" route="aub-ain_mreysse ain_mreysse-zeytouna" type="type1"/>
<vehicle depart="102.491103" departLane="1" id="bliss-ain_mreysse_1_8" route="bliss-ain_mreysse ain_mreysse-aub" type="type1"/>
<vehicle depart="103.349282" departLane="3" id="zeytouna-ain_mreysse_3_18" route="zeytouna-ain_mreysse ain_mreysse-bliss" type="type1"/>
<vehicle depart="103.411131" departLane="0" id="zeytouna-ain_mreysse_0_16" route="zeytouna-ain_mreysse ain_mreysse-aub" type="type1"/>
<vehicle depart="103.769401" departLane="2" id="zeytouna-ain_mreysse_2_13" route="zeytouna-ain_mreysse ain_mreysse-aub" type="type1"/>
<vehicle depart="103.769401" departLane="0" id="aub-ain_mreysse_0_13" route="aub-ain_mreysse ain_mreysse-bliss" type="type1"/>
<vehicle depart="104.205352" departLane="1" id="zeytouna-ain_mreysse_1_53" route="zeytouna-ain_mreysse ain_mreysse-aub" type="type1"/>
<vehicle depart="104.205352" departLane="1" id="aub-ain_mreysse_1_53" route="aub-ain_mreysse ain_mreysse-zeytouna" type="type1"/>
<vehicle depart="106.171491" departLane="1" id="zeytouna-ain_mreysse_1_54" route="zeytouna-ain_mreysse ain_mreysse-aub" type="type1"/>
<vehicle depart="106.171491" departLane="1" id="aub-ain_mreysse_1_54" route="aub-ain_mreysse ain_mreysse-zeytouna" type="type1"/>
<vehicle depart="108.137630" departLane="1" id="zeytouna-ain_mreysse_1_55" route="zeytouna-ain_mreysse ain_mreysse-aub" type="type1"/>
<vehicle depart="108.137630" departLane="1" id="aub-ain_mreysse_1_55" route="aub-ain_mreysse ain_mreysse-zeytouna" type="type1"/>
<vehicle depart="109.090909" departLane="3" id="zeytouna-ain_mreysse_3_19" route="zeytouna-ain_mreysse ain_mreysse-bliss" type="type1"/>
<vehicle depart="109.874327" departLane="0" id="zeytouna-ain_mreysse_0_17" route="zeytouna-ain_mreysse ain_mreysse-aub" type="type1"/>
<vehicle depart="110.103768" departLane="1" id="zeytouna-ain_mreysse_1_56" route="zeytouna-ain_mreysse ain_mreysse-aub" type="type1"/>
<vehicle depart="110.103768" departLane="1" id="aub-ain_mreysse_1_56" route="aub-ain_mreysse ain_mreysse-zeytouna" type="type1"/>
<vehicle depart="111.751663" departLane="2" id="zeytouna-ain_mreysse_2_14" route="zeytouna-ain_mreysse ain_mreysse-aub" type="type1"/>
<vehicle depart="111.751663" departLane="0" id="aub-ain_mreysse_0_14" route="aub-ain_mreysse ain_mreysse-zeytouna" type="type1"/>
<vehicle depart="112.069907" departLane="1" id="zeytouna-ain_mreysse_1_57" route="zeytouna-ain_mreysse ain_mreysse-aub" type="type1"/>
<vehicle depart="112.069907" departLane="1" id="aub-ain_mreysse_1_57" route="aub-ain_mreysse ain_mreysse-zeytouna" type="type1"/>
<vehicle depart="114.036046" departLane="1" id="zeytouna-ain_mreysse_1_58" route="zeytouna-ain_mreysse ain_mreysse-aub" type="type1"/>
<vehicle depart="114.036046" departLane="1" id="aub-ain_mreysse_1_58" route="aub-ain_mreysse ain_mreysse-zeytouna" type="type1"/>
<vehicle depart="114.832536" departLane="3" id="zeytouna-ain_mreysse_3_20" route="zeytouna-ain_mreysse ain_mreysse-bliss" type="type1"/>
<vehicle depart="115.302491" departLane="1" id="bliss-ain_mreysse_1_9" route="bliss-ain_mreysse ain_mreysse-aub" type="type1"/>
<vehicle depart="116.002185" departLane="1" id="zeytouna-ain_mreysse_1_59" route="zeytouna-ain_mreysse ain_mreysse-aub" type="type1"/>
<vehicle depart="116.002185" departLane="1" id="aub-ain_mreysse_1_59" route="aub-ain_mreysse ain_mreysse-zeytouna" type="type1"/>
<vehicle depart="116.337522" departLane="0" id="zeytouna-ain_mreysse_0_18" route="zeytouna-ain_mreysse ain_mreysse-aub" type="type1"/>
<vehicle depart="117.968323" departLane="1" id="zeytouna-ain_mreysse_1_60" route="zeytouna-ain_mreysse ain_mreysse-aub" type="type1"/>
<vehicle depart="117.968323" departLane="1" id="aub-ain_mreysse_1_60" route="aub-ain_mreysse ain_mreysse-zeytouna" type="type1"/>
<vehicle depart="119.733925" departLane="2" id="zeytouna-ain_mreysse_2_15" route="zeytouna-ain_mreysse ain_mreysse-aub" type="type1"/>
<vehicle depart="119.733925" departLane="0" id="aub-ain_mreysse_0_15" route="aub-ain_mreysse ain_mreysse-zeytouna" type="type1"/>
<vehicle depart="119.934462" departLane="1" id="zeytouna-ain_mreysse_1_61" route="zeytouna-ain_mreysse ain_mreysse-aub" type="type1"/>
<vehicle depart="119.934462" departLane="1" id="aub-ain_mreysse_1_61" route="aub-ain_mreysse ain_mreysse-zeytouna" type="type1"/>
<vehicle depart="120.574163" departLane="3" id="zeytouna-ain_mreysse_3_21" route="zeytouna-ain_mreysse ain_mreysse-bliss" type="type1"/>
<vehicle depart="121.900601" departLane="1" id="zeytouna-ain_mreysse_1_62" route="zeytouna-ain_mreysse ain_mreysse-aub" type="type1"/>
<vehicle depart="121.900601" departLane="1" id="aub-ain_mreysse_1_62" route="aub-ain_mreysse ain_mreysse-zeytouna" type="type1"/>
<vehicle depart="122.800718" departLane="0" id="zeytouna-ain_mreysse_0_19" route="zeytouna-ain_mreysse ain_mreysse-aub" type="type1"/>
<vehicle depart="123.866739" departLane="1" id="zeytouna-ain_mreysse_1_63" route="zeytouna-ain_mreysse ain_mreysse-aub" type="type1"/>
<vehicle depart="123.866739" departLane="1" id="aub-ain_mreysse_1_63" route="aub-ain_mreysse ain_mreysse-zeytouna" type="type1"/>
<vehicle depart="125.832878" departLane="1" id="zeytouna-ain_mreysse_1_64" route="zeytouna-ain_mreysse ain_mreysse-aub" type="type1"/>
<vehicle depart="125.832878" departLane="1" id="aub-ain_mreysse_1_64" route="aub-ain_mreysse ain_mreysse-zeytouna" type="type1"/>
<vehicle depart="126.315789" departLane="3" id="zeytouna-ain_mreysse_3_22" route="zeytouna-ain_mreysse ain_mreysse-bliss" type="type1"/>
<vehicle depart="127.716186" departLane="2" id="zeytouna-ain_mreysse_2_16" route="zeytouna-ain_mreysse ain_mreysse-aub" type="type1"/>
<vehicle depart="127.716186" departLane="0" id="aub-ain_mreysse_0_16" route="aub-ain_mreysse ain_mreysse-bliss" type="type1"/>
<vehicle depart="127.799017" departLane="1" id="zeytouna-ain_mreysse_1_65" route="zeytouna-ain_mreysse ain_mreysse-aub" type="type1"/>
<vehicle depart="127.799017" departLane="1" id="aub-ain_mreysse_1_65" route="aub-ain_mreysse ain_mreysse-zeytouna" type="type1"/>